PV_Scenarios/PV_combined/scenario_13_combined/PV_combined50per.txt
New PVSystem.PV_1 phases=1 bus1=G2000TJ2700_N274103_sec_1.3 kV=0.24 kVA=6.36 irradiance=1 Pmpp=5.3 %cutin=0.1 %cutout=0.1
New PVSystem.PV_2 phases=1 bus1=G2000TN4400_N283873_sec_4.3 kV=0.24 kVA=3 irradiance=1 Pmpp=2.5 %cutin=0.1 %cutout=0.1
New PVSystem.PV_3 phases=1 bus1=G2000UM7300_N283821_sec_1.2 kV=0.24 kVA=4.9092 irradiance=1 Pmpp=4.091 %cutin=0.1 %cutout=0.1
New PVSystem.PV_4 phases=1 bus1=G2000VI6200_N283684_sec_2.2 kV=0.24 kVA=6.84 irradiance=1 Pmpp=5.7 %cutin=0.1 %cutout=0.1
New PVSystem.PV_5 phases=1 bus1=G2000WI4400_N283710_sec_3.2 kV=0.24 kVA=6.48 irradiance=1 Pmpp=5.4 %cutin=0.1 %cutout=0.1
New PVSystem.PV_6 phases=1 bus1=G2000XH4800_N283608_sec_2.2 kV=0.24 kVA=2.16 irradiance=1 Pmpp=1.8 %cutin=0.1 %cutout=0.1
New PVSystem.PV_7 phases=1 bus1=G2000XO7000_N283918_sec_7.3 kV=0.24 kVA=5.64 irradiance=1 Pmpp=4.7 %cutin=0.1 %cutout=0.1
New PVSystem.PV_8 phases=1 bus1=G2001RH0400_N274403_sec_6.2 kV=0.24 kVA=11.28 irradiance=1 Pmpp=9.4 %cutin=0.1 %cutout=0.1
New PVSystem.PV_9 phases=1 bus1=G2001SB8200_N274258_sec_5.3 kV=0.24 kVA=7.08 irradiance=1 Pmpp=5.9 %cutin=0.1 %cutout=0.1
New PVSystem.PV_10 phases=1 bus1=G2001SH3700_N274411_sec_8.1 kV=0.24 kVA=7.44 irradiance=1 Pmpp=6.2 %cutin=0.1 %cutout=0.1
New PVSystem.PV_11 phases=1 bus1=G2001SL0100_N274540_sec_5.2 kV=0.24 kVA=16.2 irradiance=1 Pmpp=13.5 %cutin=0.1 %cutout=0.1
New PVSystem.PV_12 phases=1 bus1=G2001SL1900_N274539_sec_1.2 kV=0.24 kVA=10.56 irradiance=1 Pmpp=8.8 %cutin=0.1 %cutout=0.1
New PVSystem.PV_13 phases=1 bus1=G2001TD3700_N274305_sec_6.3 kV=0.24 kVA=5.04 irradiance=1 Pmpp=4.2 %cutin=0.1 %cutout=0.1
New PVSystem.PV_14 phases=1 bus1=G2001UB2100_N283965_sec_1.3 kV=0.24 kVA=8.52 irradiance=1 Pmpp=7.1 %cutin=0.1 %cutout=0.1
New PVSystem.PV_15 phases=1 bus1=G2001VF4000_N284076_sec_3.3 kV=0.24 kVA=5.76 irradiance=1 Pmpp=4.8 %cutin=0.1 %cutout=0.1
New PVSystem.PV_16 phases=1 bus1=G2001XF9200_N284087_sec_1.3 kV=0.24 kVA=3.12 irradiance=1 Pmpp=2.6 %cutin=0.1 %cutout=0.1
New PVSystem.PV_17 phases=1 bus1=G2001XI4700_N284192_sec_1.3 kV=0.24 kVA=5.64 irradiance=1 Pmpp=4.7 %cutin=0.1 %cutout=0.1
New PVSystem.PV_18 phases=1 bus1=G2100AE4800_N283558_sec_1.3 kV=0.24 kVA=2.64 irradiance=1 Pmpp=2.2 %cutin=0.1 %cutout=0.1
New PVSystem.PV_19 phases=1 bus1=G2100BE8900_N283564_sec_4.3 kV=0.24 kVA=3.24 irradiance=1 Pmpp=2.7 %cutin=0.1 %cutout=0.1
New PVSystem.PV_20 phases=1 bus1=G2100BJ0700_N283696_sec_7.2 kV=0.24 kVA=10.92 irradiance=1 Pmpp=9.1 %cutin=0.1 %cutout=0.1
New PVSystem.PV_21 phases=1 bus1=G2100BJ7400_N283728_sec_8.2 kV=0.24 kVA=6.84 irradiance=1 Pmpp=5.7 %cutin=0.1 %cutout=0.1
New PVSystem.PV_22 phases=1 bus1=G2100CH7400_N283632_sec_13.3 kV=0.24 kVA=5.16 irradiance=1 Pmpp=4.3 %cutin=0.1 %cutout=0.1
New PVSystem.PV_23 phases=1 bus1=G2100CI3400_N1370071_sec_1.1 kV=0.24 kVA=0.84 irradiance=1 Pmpp=0.7 %cutin=0.1 %cutout=0.1
New PVSystem.PV_24 phases=1 bus1=G2100CL9700_N283793_sec_2.1 kV=0.24 kVA=5.88 irradiance=1 Pmpp=4.9 %cutin=0.1 %cutout=0.1
New PVSystem.PV_25 phases=1 bus1=G2100DG1300_N283601_sec_10.3 kV=0.24 kVA=5.4 irradiance=1 Pmpp=4.5 %cutin=0.1 %cutout=0.1
New PVSystem.PV_26 phases=1 bus1=G2100DH7600_N283641_sec_1.2 kV=0.24 kVA=4.44 irradiance=1 Pmpp=3.7 %cutin=0.1 %cutout=0.1
New PVSystem.PV_27 phases=1 bus1=G2100DM3200_N283818_sec_1.3 kV=0.24 kVA=4.2 irradiance=1 Pmpp=3.5 %cutin=0.1 %cutout=0.1
New PVSystem.PV_28 phases=1 bus1=G2100DN4800_N283861_sec_32.3 kV=0.24 kVA=3 irradiance=1 Pmpp=2.5 %cutin=0.1 %cutout=0.1
New PVSystem.PV_29 phases=1 bus1=G2100DN4800_N283861_sec_39.3 kV=0.24 kVA=1.56 irradiance=1 Pmpp=1.3 %cutin=0.1 %cutout=0.1
New PVSystem.PV_30 phases=1 bus1=G2100EK8800_N292347_sec_2.2 kV=0.24 kVA=4.8 irradiance=1 Pmpp=4 %cutin=0.1 %cutout=0.1
New PVSystem.PV_31 phases=3 conn = delta bus1=G2100FG1700_N292304_sec_10.1.2.3 kV=0.48 kVA=39.12 irradiance=1 Pmpp=32.6 %cutin=0.1 %cutout=0.1
New PVSystem.PV_32 phases=1 bus1=G2100FK5800_N292373_sec_1.2 kV=0.24 kVA=13.1287 irradiance=1 Pmpp=10.9406 %cutin=0.1 %cutout=0.1
New PVSystem.PV_33 phases=1 bus1=G2100FL3500_N292410_sec_5.2 kV=0.24 kVA=4.08 irradiance=1 Pmpp=3.4 %cutin=0.1 %cutout=0.1
New PVSystem.PV_34 phases=3 conn = delta bus1=G2100GI5400_N292325_sec_3.1.2.3 kV=0.48 kVA=13.56 irradiance=1 Pmpp=11.3 %cutin=0.1 %cutout=0.1
New PVSystem.PV_35 phases=1 bus1=G2100GM9700_N292423_sec_16.3 kV=0.24 kVA=4.8 irradiance=1 Pmpp=4 %cutin=0.1 %cutout=0.1
New PVSystem.PV_36 phases=1 bus1=G2100GN0400_N292471_sec_8.1 kV=0.24 kVA=3.24 irradiance=1 Pmpp=2.7 %cutin=0.1 %cutout=0.1
New PVSystem.PV_37 phases=1 bus1=G2100GN0400_N292471_sec_10.1 kV=0.24 kVA=4.68 irradiance=1 Pmpp=3.9 %cutin=0.1 %cutout=0.1
New PVSystem.PV_38 phases=1 bus1=G2100IM6700_N292430_sec_37.3 kV=0.24 kVA=1.44 irradiance=1 Pmpp=1.2 %cutin=0.1 %cutout=0.1
New PVSystem.PV_39 phases=1 bus1=G2100IN2700_N292475_sec_26.3 kV=0.24 kVA=2.52 irradiance=1 Pmpp=2.1 %cutin=0.1 %cutout=0.1
New PVSystem.PV_40 phases=1 bus1=G2100IN7700_N292438_sec_24.3 kV=0.24 kVA=4.08 irradiance=1 Pmpp=3.4 %cutin=0.1 %cutout=0.1
New PVSystem.PV_41 phases=1 bus1=G2100NM4100_N300509_sec_3.1 kV=0.24 kVA=3.36 irradiance=1 Pmpp=2.8 %cutin=0.1 %cutout=0.1
New PVSystem.PV_42 phases=1 bus1=G2100NM4100_N300509_sec_8.1 kV=0.24 kVA=5.04 irradiance=1 Pmpp=4.2 %cutin=0.1 %cutout=0.1
New PVSystem.PV_43 phases=1 bus1=G2100PO1400_N300580_sec_5.1 kV=0.24 kVA=4.44 irradiance=1 Pmpp=3.7 %cutin=0.1 %cutout=0.1
New PVSystem.PV_44 phases=1 bus1=G2100PO8100_N300593_sec_3.1 kV=0.24 kVA=4.44 irradiance=1 Pmpp=3.7 %cutin=0.1 %cutout=0.1
New PVSystem.PV_45 phases=1 bus1=G2100RN1800_N300557_sec_6.3 kV=0.24 kVA=2.76 irradiance=1 Pmpp=2.3 %cutin=0.1 %cutout=0.1
New PVSystem.PV_46 phases=1 bus1=G2101AC1300_N283976_sec_2.2 kV=0.24 kVA=10.56 irradiance=1 Pmpp=8.8 %cutin=0.1 %cutout=0.1
New PVSystem.PV_47 phases=1 bus1=G2101AG2300_N284123_sec_3.3 kV=0.24 kVA=3 irradiance=1 Pmpp=2.5 %cutin=0.1 %cutout=0.1
New PVSystem.PV_48 phases=1 bus1=G2101AH4300_N284128_sec_1.3 kV=0.24 kVA=4.2 irradiance=1 Pmpp=3.5 %cutin=0.1 %cutout=0.1
New PVSystem.PV_49 phases=1 bus1=G2101BI4200_N284183_sec_4.3 kV=0.24 kVA=3.24 irradiance=1 Pmpp=2.7 %cutin=0.1 %cutout=0.1
New PVSystem.PV_50 phases=1 bus1=G2101BM0000_N284274_sec_3.1 kV=0.24 kVA=8.76 irradiance=1 Pmpp=7.3 %cutin=0.1 %cutout=0.1
New PVSystem.PV_51 phases=1 bus1=G2101CD3700_N284034_sec_4.2 kV=0.24 kVA=10.9076 irradiance=1 Pmpp=9.0897 %cutin=0.1 %cutout=0.1
New PVSystem.PV_52 phases=1 bus1=G2101CI7200_N284177_sec_2.3 kV=0.24 kVA=2.4 irradiance=1 Pmpp=2 %cutin=0.1 %cutout=0.1
New PVSystem.PV_53 phases=1 bus1=G2101ED9700_N292597_sec_1.1 kV=0.24 kVA=3.96 irradiance=1 Pmpp=3.3 %cutin=0.1 %cutout=0.1
New PVSystem.PV_54 phases=1 bus1=G2101EG5500_N292730_sec_4.2 kV=0.24 kVA=10.8 irradiance=1 Pmpp=9 %cutin=0.1 %cutout=0.1
New PVSystem.PV_55 phases=1 bus1=G2101EL2800_N284246_sec_5.1 kV=0.24 kVA=7.8 irradiance=1 Pmpp=6.5 %cutin=0.1 %cutout=0.1
New PVSystem.PV_56 phases=1 bus1=G2101FD9100_N292643_sec_16.1 kV=0.24 kVA=2.28 irradiance=1 Pmpp=1.9 %cutin=0.1 %cutout=0.1
New PVSystem.PV_57 phases=1 bus1=G2101FM7500_N292827_sec_1.2 kV=0.24 kVA=9.1511 irradiance=1 Pmpp=7.6259 %cutin=0.1 %cutout=0.1
New PVSystem.PV_58 phases=1 bus1=G2101GC3400_N292625_sec_18.1 kV=0.24 kVA=3.96 irradiance=1 Pmpp=3.3 %cutin=0.1 %cutout=0.1
New PVSystem.PV_59 phases=1 bus1=G2101GC9700_N292633_sec_4.1 kV=0.24 kVA=3.72 irradiance=1 Pmpp=3.1 %cutin=0.1 %cutout=0.1
New PVSystem.PV_60 phases=1 bus1=G2101GD1300_N292637_sec_21.1 kV=0.24 kVA=3.24 irradiance=1 Pmpp=2.7 %cutin=0.1 %cutout=0.1
New PVSystem.PV_61 phases=3 conn = delta bus1=G2101GE7600_N292706_sec_1.1.2.3 kV=0.48 kVA=112.4534 irradiance=1 Pmpp=93.7112 %cutin=0.1 %cutout=0.1
New PVSystem.PV_62 phases=1 bus1=G2101GM7700_N292843_sec_2.2 kV=0.24 kVA=5.4 irradiance=1 Pmpp=4.5 %cutin=0.1 %cutout=0.1
New PVSystem.PV_63 phases=1 bus1=G2101HB3800_N292598_sec_2.1 kV=0.24 kVA=2.64 irradiance=1 Pmpp=2.2 %cutin=0.1 %cutout=0.1
New PVSystem.PV_64 phases=1 bus1=G2101HD2500_N292652_sec_8.1 kV=0.24 kVA=1.44 irradiance=1 Pmpp=1.2 %cutin=0.1 %cutout=0.1
New PVSystem.PV_65 phases=1 bus1=G2101HD3500_N292652_sec_2.1 kV=0.24 kVA=3.6 irradiance=1 Pmpp=3 %cutin=0.1 %cutout=0.1
New PVSystem.PV_66 phases=1 bus1=G2101HJ2800_N292786_sec_1.2 kV=0.24 kVA=9.12 irradiance=1 Pmpp=7.6 %cutin=0.1 %cutout=0.1
New PVSystem.PV_67 phases=1 bus1=G2101JK1400_N300995_sec_3.3 kV=0.24 kVA=0.72 irradiance=1 Pmpp=0.6 %cutin=0.1 %cutout=0.1
New PVSystem.PV_68 phases=1 bus1=G2101KA2300_N300631_sec_8.1 kV=0.24 kVA=4.2 irradiance=1 Pmpp=3.5 %cutin=0.1 %cutout=0.1
New PVSystem.PV_69 phases=1 bus1=G2101KA2300_N300631_sec_21.1 kV=0.24 kVA=3.6 irradiance=1 Pmpp=3 %cutin=0.1 %cutout=0.1
New PVSystem.PV_70 phases=1 bus1=G2101KF1100_N300827_sec_3.1 kV=0.24 kVA=8.64 irradiance=1 Pmpp=7.2 %cutin=0.1 %cutout=0.1
New PVSystem.PV_71 phases=1 bus1=G2101OA5500_N300636_sec_2.1 kV=0.24 kVA=4.08 irradiance=1 Pmpp=3.4 %cutin=0.1 %cutout=0.1
New PVSystem.PV_72 phases=1 bus1=G2101OA5600_N300661_sec_5.1 kV=0.24 kVA=4.32 irradiance=1 Pmpp=3.6 %cutin=0.1 %cutout=0.1
New PVSystem.PV_73 phases=1 bus1=G2101PB2500_N300719_sec_1.3 kV=0.24 kVA=3 irradiance=1 Pmpp=2.5 %cutin=0.1 %cutout=0.1
New PVSystem.PV_74 phases=1 bus1=G2101PB7100_N300674_sec_4.1 kV=0.24 kVA=4.4114 irradiance=1 Pmpp=3.6762 %cutin=0.1 %cutout=0.1
New PVSystem.PV_75 phases=1 bus1=G2101PC3200_N300744_sec_1.3 kV=0.24 kVA=5.4 irradiance=1 Pmpp=4.5 %cutin=0.1 %cutout=0.1
New PVSystem.PV_76 phases=1 bus1=G2101QC3700_N300767_sec_3.3 kV=0.24 kVA=3.24 irradiance=1 Pmpp=2.7 %cutin=0.1 %cutout=0.1
New PVSystem.PV_77 phases=1 bus1=G2101RA5400_N300653_sec_1.2 kV=0.24 kVA=13.08 irradiance=1 Pmpp=10.9 %cutin=0.1 %cutout=0.1
New PVSystem.PV_78 phases=1 bus1=G2102DG8300_N284426_sec_1.1 kV=0.24 kVA=15.2004 irradiance=1 Pmpp=12.667 %cutin=0.1 %cutout=0.1
New PVSystem.PV_79 phases=1 bus1=G2000UK1100_N283753_sec_2.3 kV=0.24 kVA=3.24 irradiance=1 Pmpp=2.7 %cutin=0.1 %cutout=0.1
New PVSystem.PV_80 phases=1 bus1=G2000VM1500_N283827_sec_1.2 kV=0.24 kVA=5.1831 irradiance=1 Pmpp=4.3192 %cutin=0.1 %cutout=0.1
New PVSystem.PV_81 phases=1 bus1=G2000XN7400_N283885_sec_3.3 kV=0.24 kVA=3.24 irradiance=1 Pmpp=2.7 %cutin=0.1 %cutout=0.1
New PVSystem.PV_82 phases=1 bus1=G2001TL8100_N274509_sec_2.2 kV=0.24 kVA=7.5314 irradiance=1 Pmpp=6.2762 %cutin=0.1 %cutout=0.1
New PVSystem.PV_83 phases=1 bus1=G2001UL2700_N284245_sec_2.2 kV=0.24 kVA=7.7351 irradiance=1 Pmpp=6.4459 %cutin=0.1 %cutout=0.1
New PVSystem.PV_84 phases=1 bus1=G2001VH9900_N284172_sec_4.3 kV=0.24 kVA=6.6 irradiance=1 Pmpp=5.5 %cutin=0.1 %cutout=0.1
New PVSystem.PV_85 phases=1 bus1=G2001VI5200_N284181_sec_5.2 kV=0.24 kVA=5.7012 irradiance=1 Pmpp=4.751 %cutin=0.1 %cutout=0.1
New PVSystem.PV_86 phases=1 bus1=G2001WE7200_N1300454_sec_2.1 kV=0.24 kVA=4.32 irradiance=1 Pmpp=3.6 %cutin=0.1 %cutout=0.1
New PVSystem.PV_87 phases=1 bus1=G2001WG1100_N284110_sec_1.3 kV=0.24 kVA=7.08 irradiance=1 Pmpp=5.9 %cutin=0.1 %cutout=0.1
New PVSystem.PV_88 phases=1 bus1=G2001XE7600_N284065_sec_4.1 kV=0.24 kVA=0.96 irradiance=1 Pmpp=0.8 %cutin=0.1 %cutout=0.1
New PVSystem.PV_89 phases=1 bus1=G2001XE9200_N284049_sec_3.3 kV=0.24 kVA=5.88 irradiance=1 Pmpp=4.9 %cutin=0.1 %cutout=0.1
New PVSystem.PV_90 phases=1 bus1=G2001XE9500_N284003_sec_2.3 kV=0.24 kVA=5.52 irradiance=1 Pmpp=4.6 %cutin=0.1 %cutout=0.1
New PVSystem.PV_91 phases=1 bus1=G2001YN2500_N284289_sec_1.1 kV=0.24 kVA=0 irradiance=1 Pmpp=0 %cutin=0.1 %cutout=0.1
New PVSystem.PV_92 phases=1 bus1=G2100AF5900_N283577_sec_9.3 kV=0.24 kVA=3.12 irradiance=1 Pmpp=2.6 %cutin=0.1 %cutout=0.1
New PVSystem.PV_93 phases=1 bus1=G2100AG8700_N283594_sec_6.3 kV=0.24 kVA=3.96 irradiance=1 Pmpp=3.3 %cutin=0.1 %cutout=0.1
New PVSystem.PV_94 phases=1 bus1=G2100AL1800_N283798_sec_3.1 kV=0.24 kVA=4.56 irradiance=1 Pmpp=3.8 %cutin=0.1 %cutout=0.1
New PVSystem.PV_95 phases=1 bus1=G2100BN9700_N283853_sec_6.3 kV=0.24 kVA=3 irradiance=1 Pmpp=2.5 %cutin=0.1 %cutout=0.1
New PVSystem.PV_96 phases=1 bus1=G2100CN9200_N283841_sec_1.3 kV=0.24 kVA=1.92 irradiance=1 Pmpp=1.6 %cutin=0.1 %cutout=0.1
New PVSystem.PV_97 phases=1 bus1=G2100DG6300_N283589_sec_10.3 kV=0.24 kVA=2.76 irradiance=1 Pmpp=2.3 %cutin=0.1 %cutout=0.1
New PVSystem.PV_98 phases=1 bus1=G2100DN4800_N283861_sec_15.3 kV=0.24 kVA=1.92 irradiance=1 Pmpp=1.6 %cutin=0.1 %cutout=0.1
New PVSystem.PV_99 phases=1 bus1=G2100DN4800_N283861_sec_21.3 kV=0.24 kVA=2.16 irradiance=1 Pmpp=1.8 %cutin=0.1 %cutout=0.1
New PVSystem.PV_100 phases=1 bus1=G2100DN4800_N283861_sec_22.3 kV=0.24 kVA=2.16 irradiance=1 Pmpp=1.8 %cutin=0.1 %cutout=0.1
New PVSystem.PV_101 phases=1 bus1=G2100DN4800_N283861_sec_30.3 kV=0.24 kVA=2.64 irradiance=1 Pmpp=2.2 %cutin=0.1 %cutout=0.1
New PVSystem.PV_102 phases=1 bus1=G2100EH3700_N292308_sec_2.1 kV=0.24 kVA=7.32 irradiance=1 Pmpp=6.1 %cutin=0.1 %cutout=0.1
New PVSystem.PV_103 phases=1 bus1=G2100EK2800_N292334_sec_5.2 kV=0.24 kVA=6.72 irradiance=1 Pmpp=5.6 %cutin=0.1 %cutout=0.1
New PVSystem.PV_104 phases=1 bus1=G2100EN2200_N292457_sec_36.3 kV=0.24 kVA=3.4669 irradiance=1 Pmpp=2.8891 %cutin=0.1 %cutout=0.1
New PVSystem.PV_105 phases=3 conn = delta bus1=G2100FE2600_N292234_sec_2.1.2.3 kV=0.48 kVA=12.96 irradiance=1 Pmpp=10.8 %cutin=0.1 %cutout=0.1
New PVSystem.PV_106 phases=3 conn = delta bus1=G2100GK8200_N292379_sec_1.1.2.3 kV=0.48 kVA=16.92 irradiance=1 Pmpp=14.1 %cutin=0.1 %cutout=0.1
New PVSystem.PV_107 phases=1 bus1=G2100HM9900_N292433_sec_2.3 kV=0.24 kVA=2.76 irradiance=1 Pmpp=2.3 %cutin=0.1 %cutout=0.1
New PVSystem.PV_108 phases=3 conn = delta bus1=G2100HN2600_N292488_sec_6.1.2.3 kV=0.48 kVA=37.92 irradiance=1 Pmpp=31.6 %cutin=0.1 %cutout=0.1
New PVSystem.PV_109 phases=1 bus1=G2100HN5600_N292453_sec_16.3 kV=0.24 kVA=1.68 irradiance=1 Pmpp=1.4 %cutin=0.1 %cutout=0.1
New PVSystem.PV_110 phases=1 bus1=G2100IL1000_N292412_sec_25.3 kV=0.24 kVA=0.6 irradiance=1 Pmpp=0.5 %cutin=0.1 %cutout=0.1
New PVSystem.PV_111 phases=1 bus1=G2100IL1000_N292412_sec_34.3 kV=0.24 kVA=3.36 irradiance=1 Pmpp=2.8 %cutin=0.1 %cutout=0.1
New PVSystem.PV_112 phases=1 bus1=G2100IM6700_N292430_sec_19.3 kV=0.24 kVA=2.76 irradiance=1 Pmpp=2.3 %cutin=0.1 %cutout=0.1
New PVSystem.PV_113 phases=1 bus1=G2100IN2700_N292475_sec_16.3 kV=0.24 kVA=4.08 irradiance=1 Pmpp=3.4 %cutin=0.1 %cutout=0.1
New PVSystem.PV_114 phases=1 bus1=G2100IN2700_N292475_sec_17.3 kV=0.24 kVA=3.12 irradiance=1 Pmpp=2.6 %cutin=0.1 %cutout=0.1
New PVSystem.PV_115 phases=3 conn = delta bus1=G2100KO6600_N300582_sec_3.1.2.3 kV=0.48 kVA=20.88 irradiance=1 Pmpp=17.4 %cutin=0.1 %cutout=0.1
New PVSystem.PV_116 phases=3 conn = delta bus1=G2100NJ8400_N300472_sec_1.1.2.3 kV=0.48 kVA=9.6 irradiance=1 Pmpp=8 %cutin=0.1 %cutout=0.1
New PVSystem.PV_117 phases=1 bus1=G2100ON6900_N300568_sec_1.1 kV=0.24 kVA=3.6 irradiance=1 Pmpp=3 %cutin=0.1 %cutout=0.1
New PVSystem.PV_118 phases=1 bus1=G2100PN4000_N300544_sec_1.1 kV=0.24 kVA=6.6 irradiance=1 Pmpp=5.5 %cutin=0.1 %cutout=0.1
New PVSystem.PV_119 phases=1 bus1=G2100RN9500_N312395_sec_2.3 kV=0.24 kVA=4.44 irradiance=1 Pmpp=3.7 %cutin=0.1 %cutout=0.1
New PVSystem.PV_120 phases=1 bus1=G2100RO8000_N312436_sec_1.3 kV=0.24 kVA=3.12 irradiance=1 Pmpp=2.6 %cutin=0.1 %cutout=0.1
New PVSystem.PV_121 phases=1 bus1=G2101AG2300_N284123_sec_2.3 kV=0.24 kVA=5.04 irradiance=1 Pmpp=4.2 %cutin=0.1 %cutout=0.1
New PVSystem.PV_122 phases=1 bus1=G2101AK7700_N284223_sec_2.1 kV=0.24 kVA=2.9955 irradiance=1 Pmpp=2.4963 %cutin=0.1 %cutout=0.1
New PVSystem.PV_123 phases=1 bus1=G2101BD7000_N283957_sec_2.3 kV=0.24 kVA=5.04 irradiance=1 Pmpp=4.2 %cutin=0.1 %cutout=0.1
New PVSystem.PV_124 phases=1 bus1=G2101BM6600_N284296_sec_2.1 kV=0.24 kVA=7.44 irradiance=1 Pmpp=6.2 %cutin=0.1 %cutout=0.1
New PVSystem.PV_125 phases=1 bus1=G2101DC0100_N283946_sec_3.1 kV=0.24 kVA=5.28 irradiance=1 Pmpp=4.4 %cutin=0.1 %cutout=0.1
New PVSystem.PV_126 phases=1 bus1=G2101DM2100_N284273_sec_1.1 kV=0.24 kVA=6 irradiance=1 Pmpp=5 %cutin=0.1 %cutout=0.1
New PVSystem.PV_127 phases=1 bus1=G2101ED9500_N292665_sec_4.1 kV=0.24 kVA=9.2271 irradiance=1 Pmpp=7.6892 %cutin=0.1 %cutout=0.1
New PVSystem.PV_128 phases=1 bus1=G2101FC8400_N292612_sec_20.2 kV=0.24 kVA=6.72 irradiance=1 Pmpp=5.6 %cutin=0.1 %cutout=0.1
New PVSystem.PV_129 phases=1 bus1=G2101FC8400_N292612_sec_21.2 kV=0.24 kVA=2.88 irradiance=1 Pmpp=2.4 %cutin=0.1 %cutout=0.1
New PVSystem.PV_130 phases=1 bus1=G2101FD9100_N292643_sec_11.1 kV=0.24 kVA=1.92 irradiance=1 Pmpp=1.6 %cutin=0.1 %cutout=0.1
New PVSystem.PV_131 phases=1 bus1=G2101FD9100_N292643_sec_20.1 kV=0.24 kVA=7.44 irradiance=1 Pmpp=6.2 %cutin=0.1 %cutout=0.1
New PVSystem.PV_132 phases=1 bus1=G2101FG5400_N292715_sec_1.2 kV=0.24 kVA=6.36 irradiance=1 Pmpp=5.3 %cutin=0.1 %cutout=0.1
New PVSystem.PV_133 phases=1 bus1=G2101FH6200_N292725_sec_1.2 kV=0.24 kVA=6.3563 irradiance=1 Pmpp=5.2969 %cutin=0.1 %cutout=0.1
New PVSystem.PV_134 phases=3 conn = delta bus1=G2101GA6800_N292554_sec_2.1.2.3 kV=0.48 kVA=16.2 irradiance=1 Pmpp=13.5 %cutin=0.1 %cutout=0.1
New PVSystem.PV_135 phases=1 bus1=G2101GB6700_N292603_sec_7.1 kV=0.24 kVA=6.96 irradiance=1 Pmpp=5.8 %cutin=0.1 %cutout=0.1
New PVSystem.PV_136 phases=1 bus1=G2101GC3400_N292625_sec_9.1 kV=0.24 kVA=2.266 irradiance=1 Pmpp=1.8883 %cutin=0.1 %cutout=0.1
New PVSystem.PV_137 phases=1 bus1=G2101GD1300_N292637_sec_13.1 kV=0.24 kVA=1.92 irradiance=1 Pmpp=1.6 %cutin=0.1 %cutout=0.1
New PVSystem.PV_138 phases=1 bus1=G2101GD6200_N292642_sec_19.1 kV=0.24 kVA=3.72 irradiance=1 Pmpp=3.1 %cutin=0.1 %cutout=0.1
New PVSystem.PV_139 phases=3 conn = delta bus1=G2101GE2800_N292678_sec_1.1.2.3 kV=0.48 kVA=78.72 irradiance=1 Pmpp=65.6 %cutin=0.1 %cutout=0.1
New PVSystem.PV_140 phases=1 bus1=G2101HA1800_N292557_sec_1.3 kV=0.24 kVA=0.24 irradiance=1 Pmpp=0.2 %cutin=0.1 %cutout=0.1
New PVSystem.PV_141 phases=1 bus1=G2101HC2500_N292626_sec_6.1 kV=0.24 kVA=0.24 irradiance=1 Pmpp=0.2 %cutin=0.1 %cutout=0.1
New PVSystem.PV_142 phases=1 bus1=G2101HD2900_N292658_sec_7.1 kV=0.24 kVA=3 irradiance=1 Pmpp=2.5 %cutin=0.1 %cutout=0.1
New PVSystem.PV_143 phases=1 bus1=G2101HD3500_N292652_sec_16.1 kV=0.24 kVA=3.36 irradiance=1 Pmpp=2.8 %cutin=0.1 %cutout=0.1
New PVSystem.PV_144 phases=1 bus1=G2101HG3400_N1406188_sec_5.1 kV=0.24 kVA=8.88 irradiance=1 Pmpp=7.4 %cutin=0.1 %cutout=0.1
New PVSystem.PV_145 phases=1 bus1=G2101JN9300_N301049_sec_1.3 kV=0.24 kVA=12.48 irradiance=1 Pmpp=10.4 %cutin=0.1 %cutout=0.1
New PVSystem.PV_146 phases=1 bus1=G2101KA0900_N300672_sec_16.1 kV=0.24 kVA=1.56 irradiance=1 Pmpp=1.3 %cutin=0.1 %cutout=0.1
New PVSystem.PV_147 phases=1 bus1=G2101KA3900_N300679_sec_2.1 kV=0.24 kVA=2.52 irradiance=1 Pmpp=2.1 %cutin=0.1 %cutout=0.1
New PVSystem.PV_148 phases=1 bus1=G2101OB6500_N300721_sec_6.3 kV=0.24 kVA=2.4 irradiance=1 Pmpp=2 %cutin=0.1 %cutout=0.1
New PVSystem.PV_149 phases=1 bus1=G2101OP2300_N300646_sec_3.1 kV=0.24 kVA=5.04 irradiance=1 Pmpp=4.2 %cutin=0.1 %cutout=0.1
New PVSystem.PV_150 phases=1 bus1=G2101PB2500_N300719_sec_4.3 kV=0.24 kVA=1.56 irradiance=1 Pmpp=1.3 %cutin=0.1 %cutout=0.1
New PVSystem.PV_151 phases=1 bus1=G2101PB2500_N300719_sec_10.3 kV=0.24 kVA=2.28 irradiance=1 Pmpp=1.9 %cutin=0.1 %cutout=0.1
New PVSystem.PV_152 phases=1 bus1=G2101PB5100_N300681_sec_6.1 kV=0.24 kVA=4.44 irradiance=1 Pmpp=3.7 %cutin=0.1 %cutout=0.1
New PVSystem.PV_153 phases=1 bus1=G2101PC7200_N300740_sec_4.3 kV=0.24 kVA=0.48 irradiance=1 Pmpp=0.4 %cutin=0.1 %cutout=0.1
New PVSystem.PV_154 phases=1 bus1=G2101RA8200_N312510_sec_8.3 kV=0.24 kVA=2.16 irradiance=1 Pmpp=1.8 %cutin=0.1 %cutout=0.1
New PVSystem.PV_155 phases=1 bus1=G2101SA6800_N312536_sec_5.2 kV=0.24 kVA=3.8262 irradiance=1 Pmpp=3.1885 %cutin=0.1 %cutout=0.1
New PVSystem.PV_156 phases=1 bus1=G2000UL1900_N283810_sec_2.2 kV=0.24 kVA=6.36 irradiance=1 Pmpp=5.3 %cutin=0.1 %cutout=0.1
New PVSystem.PV_157 phases=1 bus1=G2000WM6400_N283824_sec_1.3 kV=0.24 kVA=2.76 irradiance=1 Pmpp=2.3 %cutin=0.1 %cutout=0.1
New PVSystem.PV_158 phases=1 bus1=G2001RI6300_N1347089_sec_3.1 kV=0.24 kVA=5.28 irradiance=1 Pmpp=4.4 %cutin=0.1 %cutout=0.1
New PVSystem.PV_159 phases=1 bus1=G2001SE4900_N274364_sec_1.3 kV=0.24 kVA=4.08 irradiance=1 Pmpp=3.4 %cutin=0.1 %cutout=0.1
New PVSystem.PV_160 phases=1 bus1=G2001SL1400_N274531_sec_1.2 kV=0.24 kVA=10.0542 irradiance=1 Pmpp=8.3785 %cutin=0.1 %cutout=0.1
New PVSystem.PV_161 phases=1 bus1=G2001TC3700_N274281_sec_1.3 kV=0.24 kVA=2.0238 irradiance=1 Pmpp=1.6865 %cutin=0.1 %cutout=0.1
New PVSystem.PV_162 phases=1 bus1=G2001TC6700_N274291_sec_4.3 kV=0.24 kVA=3.72 irradiance=1 Pmpp=3.1 %cutin=0.1 %cutout=0.1
New PVSystem.PV_163 phases=1 bus1=G2001UE3900_N284081_sec_3.3 kV=0.24 kVA=3 irradiance=1 Pmpp=2.5 %cutin=0.1 %cutout=0.1
New PVSystem.PV_164 phases=1 bus1=G2001UF3600_N284081_sec_2.3 kV=0.24 kVA=5.04 irradiance=1 Pmpp=4.2 %cutin=0.1 %cutout=0.1
New PVSystem.PV_165 phases=1 bus1=G2001UL2700_N284245_sec_1.2 kV=0.24 kVA=5.16 irradiance=1 Pmpp=4.3 %cutin=0.1 %cutout=0.1
New PVSystem.PV_166 phases=1 bus1=G2001VA3800_N283914_sec_1.3 kV=0.24 kVA=5.52 irradiance=1 Pmpp=4.6 %cutin=0.1 %cutout=0.1
New PVSystem.PV_167 phases=1 bus1=G2001VB5300_N283949_sec_1.3 kV=0.24 kVA=4.2 irradiance=1 Pmpp=3.5 %cutin=0.1 %cutout=0.1
New PVSystem.PV_168 phases=1 bus1=G2001VH9900_N284172_sec_2.3 kV=0.24 kVA=4.44 irradiance=1 Pmpp=3.7 %cutin=0.1 %cutout=0.1
New PVSystem.PV_169 phases=1 bus1=G2001WJ2500_N284208_sec_3.2 kV=0.24 kVA=9.9912 irradiance=1 Pmpp=8.326 %cutin=0.1 %cutout=0.1
New PVSystem.PV_170 phases=1 bus1=G2001XE2600_N284069_sec_1.1 kV=0.24 kVA=12 irradiance=1 Pmpp=10 %cutin=0.1 %cutout=0.1
New PVSystem.PV_171 phases=1 bus1=G2001YN2300_N284286_sec_1.1 kV=0.24 kVA=4.2 irradiance=1 Pmpp=3.5 %cutin=0.1 %cutout=0.1
New PVSystem.PV_172 phases=1 bus1=G2100AF5900_N283577_sec_8.3 kV=0.24 kVA=4.92 irradiance=1 Pmpp=4.1 %cutin=0.1 %cutout=0.1
New PVSystem.PV_173 phases=1 bus1=G2100BG5600_N283598_sec_1.3 kV=0.24 kVA=3.96 irradiance=1 Pmpp=3.3 %cutin=0.1 %cutout=0.1
New PVSystem.PV_174 phases=1 bus1=G2100BJ0700_N283696_sec_12.2 kV=0.24 kVA=7.92 irradiance=1 Pmpp=6.6 %cutin=0.1 %cutout=0.1
New PVSystem.PV_175 phases=1 bus1=G2100CJ3400_N283737_sec_2.2 kV=0.24 kVA=6.331 irradiance=1 Pmpp=5.2758 %cutin=0.1 %cutout=0.1
New PVSystem.PV_176 phases=1 bus1=G2100CN4900_N283858_sec_9.3 kV=0.24 kVA=3.12 irradiance=1 Pmpp=2.6 %cutin=0.1 %cutout=0.1
New PVSystem.PV_177 phases=1 bus1=G2100CN9200_N283841_sec_4.3 kV=0.24 kVA=2.64 irradiance=1 Pmpp=2.2 %cutin=0.1 %cutout=0.1
New PVSystem.PV_178 phases=1 bus1=G2100CO8200_N283869_sec_7.3 kV=0.24 kVA=2.88 irradiance=1 Pmpp=2.4 %cutin=0.1 %cutout=0.1
New PVSystem.PV_179 phases=1 bus1=G2100DN3000_N283838_sec_1.3 kV=0.24 kVA=1.08 irradiance=1 Pmpp=0.9 %cutin=0.1 %cutout=0.1
New PVSystem.PV_180 phases=1 bus1=G2100DN4800_N283861_sec_5.3 kV=0.24 kVA=2.64 irradiance=1 Pmpp=2.2 %cutin=0.1 %cutout=0.1
New PVSystem.PV_181 phases=1 bus1=G2100DN4800_N283861_sec_20.3 kV=0.24 kVA=2.28 irradiance=1 Pmpp=1.9 %cutin=0.1 %cutout=0.1
New PVSystem.PV_182 phases=1 bus1=G2100EH3700_N292308_sec_1.1 kV=0.24 kVA=5.28 irradiance=1 Pmpp=4.4 %cutin=0.1 %cutout=0.1
New PVSystem.PV_183 phases=1 bus1=G2100EK1100_N292334_sec_1.2 kV=0.24 kVA=12 irradiance=1 Pmpp=10 %cutin=0.1 %cutout=0.1
New PVSystem.PV_184 phases=1 bus1=G2100EM2500_N292390_sec_1.2 kV=0.24 kVA=11.04 irradiance=1 Pmpp=9.2 %cutin=0.1 %cutout=0.1
New PVSystem.PV_185 phases=1 bus1=G2100EM2500_N292390_sec_5.2 kV=0.24 kVA=11.64 irradiance=1 Pmpp=9.7 %cutin=0.1 %cutout=0.1
New PVSystem.PV_186 phases=1 bus1=G2100EM6500_N292425_sec_1.3 kV=0.24 kVA=5.88 irradiance=1 Pmpp=4.9 %cutin=0.1 %cutout=0.1
New PVSystem.PV_187 phases=1 bus1=G2100EN2200_N292457_sec_9.3 kV=0.24 kVA=2.88 irradiance=1 Pmpp=2.4 %cutin=0.1 %cutout=0.1
New PVSystem.PV_188 phases=1 bus1=G2100EN2200_N292457_sec_29.3 kV=0.24 kVA=3 irradiance=1 Pmpp=2.5 %cutin=0.1 %cutout=0.1
New PVSystem.PV_189 phases=1 bus1=G2100EN8600_N292479_sec_13.3 kV=0.24 kVA=2.16 irradiance=1 Pmpp=1.8 %cutin=0.1 %cutout=0.1
New PVSystem.PV_190 phases=1 bus1=G2100EO2100_N292498_sec_16.3 kV=0.24 kVA=2.28 irradiance=1 Pmpp=1.9 %cutin=0.1 %cutout=0.1
New PVSystem.PV_191 phases=1 bus1=G2100FI2200_N292320_sec_4.2 kV=0.24 kVA=9.5026 irradiance=1 Pmpp=7.9188 %cutin=0.1 %cutout=0.1
New PVSystem.PV_192 phases=1 bus1=G2100FL0800_N292417_sec_2.3 kV=0.24 kVA=5.04 irradiance=1 Pmpp=4.2 %cutin=0.1 %cutout=0.1
New PVSystem.PV_193 phases=1 bus1=G2100FO1600_N292502_sec_10.3 kV=0.24 kVA=2.52 irradiance=1 Pmpp=2.1 %cutin=0.1 %cutout=0.1
New PVSystem.PV_194 phases=1 bus1=G2100GM9700_N292423_sec_22.3 kV=0.24 kVA=3.96 irradiance=1 Pmpp=3.3 %cutin=0.1 %cutout=0.1
New PVSystem.PV_195 phases=1 bus1=G2100GO6100_N292504_sec_4.1 kV=0.24 kVA=8.28 irradiance=1 Pmpp=6.9 %cutin=0.1 %cutout=0.1
New PVSystem.PV_196 phases=1 bus1=G2100HM3200_N292420_sec_17.3 kV=0.24 kVA=1.92 irradiance=1 Pmpp=1.6 %cutin=0.1 %cutout=0.1
New PVSystem.PV_197 phases=3 conn = delta bus1=G2100HN4000_N292484_sec_1.1.2.3 kV=0.48 kVA=85.44 irradiance=1 Pmpp=71.2 %cutin=0.1 %cutout=0.1
New PVSystem.PV_198 phases=1 bus1=G2100HN5600_N292453_sec_23.3 kV=0.24 kVA=2.52 irradiance=1 Pmpp=2.1 %cutin=0.1 %cutout=0.1
New PVSystem.PV_199 phases=1 bus1=G2100HN5600_N292453_sec_32.3 kV=0.24 kVA=4.44 irradiance=1 Pmpp=3.7 %cutin=0.1 %cutout=0.1
New PVSystem.PV_200 phases=1 bus1=G2100IM6700_N292430_sec_13.3 kV=0.24 kVA=3 irradiance=1 Pmpp=2.5 %cutin=0.1 %cutout=0.1
...
